● Tips for Visual studio

Tools - Options - Fonts and Colors
※ Google 'Visual Studio Themes'

부가기능 설치
Extensions - Extensions and Updates - Online
- 'GitHub Extensions for Visual Studio - Download

Google 'Visual Studio Power mode'
: Glitter whenever you code

=====================================================================================

● Create new project

File - New - Project
Windows Desktop Wizard - Next

Project name : MyFirstPrj
Location : C:\github-repository\learningC
Solution name : myFirstSolution
※ Project and solution name should have been matched for 2017 ver. (not for 2019 ver.)

Create

Application type - Console Application (.exe) -> For basic studing
※ Desktop Application etc. : have more functions (for company)

OK

Defualt script is created for beginners (print 'Hello World')

Right part of the screen : Solution Explorer
Source Files - Check your file
※ When 'Solution Explorer' is gone : View - Solution Explorer

Build   : Build - Solution Build
Execute : Debug - Start Without Debugging (ctrl + F5)

=====================================================================================

● Convert Language : Kor -> Eng

도구 - 도구 및 기능 가져오기 - 언어팩 : Check '영어' - 수정
Rebooting - 도구 - 옵션 - 환경 - 국가별 설정 - 언어 : English - 확인
Rebooting

=====================================================================================

● Convert File : C++ -> C

default : cpp = C++

Method2)
Solution Explorer - Click 'MyFirstPrj.cpp' + F2 = rename - MyFirstPrj.c

Method2)
Solution Explorer - Right click 'MyFirstPrj' - Properties - C/C++
1) Language : Check 'C++ Language Standard'
2) Advanced : Find 'Compile As Default' - Change to 'Compile As C Code(/TC)'

After converting, some codes in the script would have red lines
This is because they are for C++, not C

=====================================================================================

● Simple Example

// stdio : 표준입출력 standard input output
#include <stdio.h>

int main() {

	printf("Hello, World!");
	return 0;
}

=====================================================================================

● Executive File

Click file's name of the script "myFirstPrj.c" - 'Open Containing Folder'
It shows the file's location

Click the folder 'Debug' - myFirstPrj.obj
-> This is the object file

Go to the upper folder 'myFirstSolution' - Click the folder 'Debug' - myFirstPrj.exe
-> This is the exe File that linked object file
   The file is executed by 'ctrl + F5'

When you click this file, it is just blinked
This is because you didn't say 'wait' to computer

실무에서 결국 해야 할 일은 이 실행 파일 만드는 것

Come back to visual studio
Build - Clean Solution - Every file above is gone
Build - Build Solution - Files are created again

=====================================================================================

● Make Multiple Projects

Solution Explorer - Click 'Solution myFirstSolution (1 of 1 project)' - Add - New Project
- Windows Desktop Wizard - Next - Create - OK
- 'cpp' file is created

● Save First Project's setting and apply to other Projects

Go to the first project's file 'myFirstPrj.c'
Project - Export Template - Yes - Next - Template name : myCProgrammingStart - Finish
The file is showed - Double click - Check the files saved

Solution Explorer - Click 'Solution myFirstSolution (1 of 1 project)' - Add - New Project
- Click 'myCProgrammingStart' (not 'Windows Desktop Wizard') - Next
- Rename 'mySecondPrj'
- Create

Solution Explorer - Right Click 'mySecondPrj' - Set as Startup Project
-> If you don't do this, 'myFirstPrj' would be executed whenever you click 'ctrl + F5'

=====================================================================================

● Command Prompt : Check 'exe' file and execute

Start Command Prompt
Method1) Tools - Visual Studio Command Prompt
Method2) Windows search 'x86 Native Tools Command Prompt for VS 2019'
         -> Visual Studio 창 보면 'x86' 이라고 써 있으니, x86 버전 사용

탐색기 실행하기 : Type 'explorer .'

Working directory 변경
상위 directory : Type 'cd ..'
다시 원래 위치 : Type 'cd Comm' + tab -> cd Community

Drive 위치 변경 : Type 'd:' or 'c:'

Console 창 위치를 아예 변경
Method1) Type 'cd C:\Users\User\Desktop\C_inflearn\myFirstSolution\Debug'
Method2) Type 'cd ' + Drag and drop the folder 'Debug' from C:\Users\User\Desktop\C_inflearn\myFirstSolution

Check directory's files and folders : Type 'dir'

Execute the project file : Type 'mySecondPrj.exe'

=====================================================================================

● Set 'Visual Studio Code'

Google 'Visual Studio Code' - Download for Windows
https://code.visualstudio.com/

'Visual studio code' needs 'compiler' program separately
※ Visual Studio : IDE -> includes 'compiler'

Google 'minGW' (minimalist GNU for Windows) - Downloads - MingW-W64-builds - Sourceforge
http://mingw-w64.org/doku.php

● 
Windows 검색 - 시스템 환경 변수 편집 - 고급 - 환경 변수
시스템 변수 'Path' 더블클릭






